54

  C  -2.95925  10.18029   6.16188 
  C  -2.64302   0.12097  12.10455 
  C  -0.63397   7.86264   1.31144 
  C  -0.31702  -2.86173   7.26257 
  C  -1.68371   0.27005  10.97965 
  C  -2.15967  11.12731   6.81237 
  C   0.16782   7.93897   0.16656 
  C  -0.65086   5.89019   5.69329 
  C  -0.17771   3.84299   6.98092 
  C   0.64019  -1.96746   7.96400 
  C   0.30806   4.84093   6.12629 
  C   0.62377   2.81289   7.48681 
  C   1.68765   4.83456   5.74264 
  C   2.00336   2.80651   7.10316 
  C   1.67123   9.61490   5.26545 
  C   2.48913   3.80445   6.24853 
  C   2.96228   1.75726   7.53616 
  C   2.14360  -0.29153  13.06289 
  C   4.47109  -3.47987   6.41708 
  C   3.99513   7.37739   2.24980 
  C   2.62844  10.50917   5.96688 
  C   2.94539  -0.21519  11.91802 
  C   4.95444   7.52647   1.12490 
  C   5.27067  -2.53284   7.06757 
  H  -1.22859   3.87056   7.26561 
  H  -1.10872  10.89387   6.97708 
  H   1.21850   8.20006   0.28509 
  H   1.09292  -0.55262  12.94436 
  H   3.42014  -3.24642   6.25237 
  H   3.54001   3.77688   5.96384 
  O  -2.09760   0.00778   9.78569 
  O  -2.38741   9.02150   5.75627 
  O  -1.84588   5.89382   6.13145 
  O  -0.06421   8.10462   2.51637 
  O  -0.23639   6.79468   4.87108 
  O   0.22470  -0.80540   8.34210 
  O   0.05381   1.88972   8.29804 
  O  -0.48920   0.65311  11.19516 
  O   0.47680   9.99379   5.04214 
  O   1.83462  -2.34635   8.18731 
  O   2.80062   6.99434   2.03429 
  O   2.25761   5.75772   4.93141 
  O   2.08672   8.45284   4.88736 
  O   2.54781   0.85277   8.35837 
  O   2.37563  -0.45718  10.71308 
  O   4.15730   1.75362   7.09800 
  O   4.69883  -1.37405   7.47318 
  O   4.40902   7.63967   3.44376 
 Fe  -1.37962   0.45219   7.83184 
 Fe  -0.95388   8.70943   4.27735 
 Fe   1.36853   6.98091   3.52790 
 Fe   0.94289   0.66653   9.70155 
 Fe   3.26530  -1.06199   8.95211 
 Fe   3.69104   7.19525   5.39762
